TLTK/Dynamic Thay Huy/Vi du minh hoa/Vd 11 - Voltage collapse/Nordic benchmark/Fault_4032_OLTC.txt

IEEE TF ON VOLTAGE STABILITY BENCHMARK MODELS
TEST SYSTEM DATA - NORDIC SYSTEM

The Saved Case in file Nordic_voltage_collapse_0.cnv was saved on SAT, FEB 27 2016  13:56

The Snapshot at TIME = 165.00038 in file Nordic_voltage_collapse_new.snp was saved on WED, MAR 30 2016  17:52

NUMBER OF ELEMENTS RESTORED:
  CONS STATES   VARS  ICONS CHANNELS
  1608    391    302    314    392

74 diagonal and 97 off-diagonal elements

    PTI INTERACTIVE POWER SYSTEM SIMULATOR--PSS(R)E     SUN, AUG 02 2020   9:33
IEEE TF ON VOLTAGE STABILITY BENCHMARK MODELS
TEST SYSTEM DATA - NORDIC SYSTEM

INITIAL CONDITION LOAD FLOW USED 1 ITERATIONS

----------------------------- MACHINE INITIAL CONDITIONS -----------------------------
  BUS# X-- NAME --X BASKV ID  ETERM   EFD    POWER    VARS   P.F.  ANGLE   ID     IQ
 50001 G1          15.000 1  1.0684 1.5299  600.00   58.34 0.9953  25.04 0.3312 0.6227
 50002 G2          15.000 1  1.0565 1.3425  300.00   17.24 0.9984  21.34 0.1584 0.4468
 50003 G3          15.000 1  1.0595 1.4899  550.00   20.92 0.9993  34.65 0.3318 0.6638
 50004 G4          15.000 1  1.0339 1.4114  400.00   30.39 0.9971  29.89 0.2856 0.5802
 50005 G5          15.000 1  1.0294 1.6934  200.00   60.09 0.9577  10.97 0.5222 0.6212
 50006 G6          15.000 1  1.0084 2.7859  360.00  138.57 0.9332 -15.17 0.8689 0.3996
 50007 G7          15.000 1  1.0141 2.7091  180.00   60.42 0.9480 -23.47 0.8417 0.4097
 50008 G8          15.000 1  1.0498 1.8044  750.00  232.59 0.9551   7.32 0.5815 0.6605
 50009 G9          15.000 1  0.9988 1.5397  668.50  201.28 0.9575  19.81 0.4322 0.5494
 50010 G10         15.000 1  1.0157 1.7417  600.00  255.70 0.9199  22.61 0.5646 0.5705
 50011 G11         15.000 1  1.0211 1.6604  250.00   60.73 0.9717  -4.00 0.5250 0.6555
 50012 G12         15.000 1  1.0200 1.7796  310.00   98.34 0.9532  -6.50 0.6210 0.6665
 50013 G13         15.000 1  1.0170 1.4124    0.00   50.12 0.0000 -54.30 0.1643 0.0000
 50014 G14         15.000 1  1.0454 2.9135  630.00  295.86 0.9052  -9.69 0.8646 0.3964
 50015 G15         15.000 1  1.0455 2.7241 1080.00  377.91 0.9439  -8.66 0.8113 0.4166
 50016 G16         15.000 1  1.0531 2.6649  600.00  222.63 0.9375 -22.42 0.7668 0.4070
 50017 G17         15.000 1  1.0092 2.3494  530.00   48.73 0.9958   7.12 0.7552 0.4497
 50018 G18         15.000 1  1.0307 2.5830 1060.00  293.43 0.9638   2.85 0.7826 0.4223
 50019 G19         15.000 1  1.0300 1.5954  300.00  121.24 0.9272  17.93 0.4031 0.4819
 50020 G20         15.000 1  1.0185 1.3365 2137.40  377.39 0.9848  16.14 0.2087 0.4251

INITIAL CONDITIONS CHECK O.K.

Channel output file is "Fault_4032_OLTC.out"

Channel output file is "Fault_4032_OLTC.out"

*** Shunt " 1" at bus 4032 [4032        400.00] (  0.0000,-0.20000E+10) added ***

Channel output file is "Fault_4032_OLTC.out"

74 diagonal and 97 off-diagonal elements

Model OLTC1T Circuit From 11 [LOAD 1011   20.000] To 1011 [1011        130.00] Cktid "1 " :
- AT TIME    1.000 PICKUP TIMER STARTED. V = 0.8780

Model OLTC1T Circuit From 12 [LOAD 1012   20.000] To 1012 [1012        130.00] Cktid "1 " :
- AT TIME    1.000 PICKUP TIMER STARTED. V = 0.9059

Model OLTC1T Circuit From 13 [LOAD 1013   20.000] To 1013 [1013        130.00] Cktid "1 " :
- AT TIME    1.000 PICKUP TIMER STARTED. V = 0.9310

Model OLTC1T Circuit From 22 [LOAD 1022   20.000] To 1022 [1022        130.00] Cktid "1 " :
- AT TIME    1.000 PICKUP TIMER STARTED. V = 0.7086

Model OLTC1T Circuit From 1 [LOAD 1041   20.000] To 1041 [1041        130.00] Cktid "1 " :
- AT TIME    1.000 PICKUP TIMER STARTED. V = 0.5021

Model OLTC1T Circuit From 2 [LOAD 1042   20.000] To 1042 [1042        130.00] Cktid "1 " :
- AT TIME    1.000 PICKUP TIMER STARTED. V = 0.7391

Model OLTC1T Circuit From 3 [LOAD 1043   20.000] To 1043 [1043        130.00] Cktid "1 " :
- AT TIME    1.000 PICKUP TIMER STARTED. V = 0.5228

Model OLTC1T Circuit From 4 [LOAD 1044   20.000] To 1044 [1044        130.00] Cktid "1 " :
- AT TIME    1.000 PICKUP TIMER STARTED. V = 0.4899

Model OLTC1T Circuit From 5 [LOAD 1043   20.000] To 1045 [1045        130.00] Cktid "1 " :
- AT TIME    1.000 PICKUP TIMER STARTED. V = 0.5376

Model OLTC1T Circuit From 31 [LOAD 2031   20.000] To 2031 [2031        220.00] Cktid "1 " :
- AT TIME    1.000 PICKUP TIMER STARTED. V = 0.4115

Model OLTC1T Circuit From 32 [LOAD 2032   20.000] To 2032 [2032        220.00] Cktid "1 " :
- AT TIME    1.000 PICKUP TIMER STARTED. V = 0.7310

Model OLTC1T Circuit From 41 [LOAD 4041   20.000] To 4041 [4041        400.00] Cktid "1 " :
- AT TIME    1.000 PICKUP TIMER STARTED. V = 0.4606

Model OLTC1T Circuit From 42 [LOAD 4042   20.000] To 4042 [4042        400.00] Cktid "1 " :
- AT TIME    1.000 PICKUP TIMER STARTED. V = 0.4666

Model OLTC1T Circuit From 43 [LOAD 4043   20.000] To 4043 [4043        400.00] Cktid "1 " :
- AT TIME    1.000 PICKUP TIMER STARTED. V = 0.5266

Model OLTC1T Circuit From 46 [LOAD 4046   20.000] To 4046 [4046        400.00] Cktid "1 " :
- AT TIME    1.000 PICKUP TIMER STARTED. V = 0.5649

Model OLTC1T Circuit From 47 [LOAD 4047   20.000] To 4047 [4047        400.00] Cktid "1 " :
- AT TIME    1.000 PICKUP TIMER STARTED. V = 0.6359

Model OLTC1T Circuit From 51 [LOAD 4051   20.000] To 4051 [4051        400.00] Cktid "1 " :
- AT TIME    1.000 PICKUP TIMER STARTED. V = 0.6531

Model OLTC1T Circuit From 61 [LOAD 4061   20.000] To 4061 [4061        400.00] Cktid "1 " :
- AT TIME    1.000 PICKUP TIMER STARTED. V = 0.6634

Model OLTC1T Circuit From 62 [LOAD 4062   20.000] To 4062 [4062        400.00] Cktid "1 " :
- AT TIME    1.000 PICKUP TIMER STARTED. V = 0.7669

Model OLTC1T Circuit From 63 [LOAD 4063   20.000] To 4063 [4063        400.00] Cktid "1 " :
- AT TIME    1.000 PICKUP TIMER STARTED. V = 0.8400

Model OLTC1T Circuit From 71 [LOAD 4071   20.000] To 4071 [4071        400.00] Cktid "1 " :
- AT TIME    1.000 PICKUP TIMER STARTED. V = 0.9485

Model OLTC1T Circuit From 72 [LOAD 4072   20.000] To 4072 [4072        400.00] Cktid "1 " :
- AT TIME    1.000 PICKUP TIMER STARTED. V = 0.9785

Model MAXEX2 Bus 50006 [G6          15.000] Machine "1 " :
AT TIME=   1.00 TIMER ACTIVATED, IFD =   3.18

Model MAXEX2 Bus 50007 [G7          15.000] Machine "1 " :
AT TIME=   1.00 TIMER ACTIVATED, IFD =   3.49

Model MAXEX2 Bus 50008 [G8          15.000] Machine "1 " :
AT TIME=   1.00 TIMER ACTIVATED, IFD =   2.04

Model MAXEX2 Bus 50011 [G11         15.000] Machine "1 " :
AT TIME=   1.00 TIMER ACTIVATED, IFD =   2.20

Model MAXEX2 Bus 50012 [G12         15.000] Machine "1 " :
AT TIME=   1.00 TIMER ACTIVATED, IFD =   2.42

Model MAXEX2 Bus 50014 [G14         15.000] Machine "1 " :
AT TIME=   1.00 TIMER ACTIVATED, IFD =   3.71

Model MAXEX2 Bus 50015 [G15         15.000] Machine "1 " :
AT TIME=   1.00 TIMER ACTIVATED, IFD =   3.25

Model MAXEX2 Bus 50016 [G16         15.000] Machine "1 " :
AT TIME=   1.00 TIMER ACTIVATED, IFD =   3.26

Model MAXEX2 Bus 50005 [G5          15.000] Machine "1 " :
AT TIME=   1.02 TIMER ACTIVATED, IFD =   2.00

Model MAXEX2 Bus 50013 [G13         15.000] Machine "1 " :
AT TIME=   1.07 TIMER ACTIVATED, IFD =   3.11

*** Shunt " 1" at bus 4032 [4032        400.00] (  0.0000,-0.20000E+10) deleted ***

*** Status of circuit "1" from 4032 [4032        400.00] to 4044 [4044        400.00] is set to out-of-service ***

Channel output file is "Fault_4032_OLTC.out"

74 diagonal and 96 off-diagonal elements

Model MAXEX2 Bus 50005 [G5          15.000] Machine "1 " :
AT TIME=   1.10 TIMER RESET, IFD =   1.98

Model MAXEX2 Bus 50013 [G13         15.000] Machine "1 " :
AT TIME=   1.10 TIMER RESET, IFD =   2.64

Model MAXEX2 Bus 50015 [G15         15.000] Machine "1 " :
AT TIME=   1.15 TIMER RESET, IFD =   3.21

Model MAXEX2 Bus 50016 [G16         15.000] Machine "1 " :
AT TIME=   1.15 TIMER RESET, IFD =   3.20

Model MAXEX2 Bus 50006 [G6          15.000] Machine "1 " :
AT TIME=   1.18 TIMER RESET, IFD =   3.12
- AT TIME    1.195 PICKUP TIMER RESET
- AT TIME    1.195 PICKUP TIMER RESET

Model OLTC1T Circuit From 71 [LOAD 4071   20.000] To 4071 [4071        400.00] Cktid "1 " :
- AT TIME    1.200 PICKUP TIMER STARTED. V = 1.0225

Model OLTC1T Circuit From 72 [LOAD 4072   20.000] To 4072 [4072        400.00] Cktid "1 " :
- AT TIME    1.200 PICKUP TIMER STARTED. V = 1.0185
- AT TIME    1.205 PICKUP TIMER RESET

Model MAXEX2 Bus 50007 [G7          15.000] Machine "1 " :
AT TIME=   1.20 TIMER RESET, IFD =   3.10

Model OLTC1T Circuit From 13 [LOAD 1013   20.000] To 1013 [1013        130.00] Cktid "1 " :
- AT TIME    1.210 PICKUP TIMER STARTED. V = 1.0242
- AT TIME    1.215 PICKUP TIMER RESET

Model OLTC1T Circuit From 11 [LOAD 1011   20.000] To 1011 [1011        130.00] Cktid "1 " :
- AT TIME    1.220 PICKUP TIMER STARTED. V = 1.0225
- AT TIME    1.225 PICKUP TIMER RESET

Model OLTC1T Circuit From 12 [LOAD 1012   20.000] To 1012 [1012        130.00] Cktid "1 " :
- AT TIME    1.230 PICKUP TIMER STARTED. V = 1.0205

Model MAXEX2 Bus 50011 [G11         15.000] Machine "1 " :
AT TIME=   1.36 TIMER RESET, IFD =   1.94
- AT TIME    1.515 PICKUP TIMER RESET

Model MAXEX2 Bus 50008 [G8          15.000] Machine "1 " :
AT TIME=   1.51 TIMER RESET, IFD =   1.99

Model OLTC1T Circuit From 63 [LOAD 4063   20.000] To 4063 [4063        400.00] Cktid "1 " :
- AT TIME    1.520 PICKUP TIMER STARTED. V = 1.0292
- AT TIME    1.630 PICKUP TIMER RESET
- AT TIME    1.665 PICKUP TIMER RESET

Model OLTC1T Circuit From 62 [LOAD 4062   20.000] To 4062 [4062        400.00] Cktid "1 " :
- AT TIME    1.670 PICKUP TIMER STARTED. V = 1.0255

Model MAXEX2 Bus 50011 [G11         15.000] Machine "1 " :
AT TIME=   1.71 TIMER ACTIVATED, IFD =   1.95
- AT TIME    1.720 PICKUP TIMER RESET
- AT TIME    1.735 PICKUP TIMER RESET
- AT TIME    1.740 PICKUP TIMER RESET

Model OLTC1T Circuit From 2 [LOAD 1042   20.000] To 1042 [1042        130.00] Cktid "1 " :
- AT TIME    1.740 PICKUP TIMER STARTED. V = 1.0294
- AT TIME    1.935 PICKUP TIMER RESET

Model MAXEX2 Bus 50011 [G11         15.000] Machine "1 " :
AT TIME=   1.94 TIMER RESET, IFD =   1.94

Model OLTC1T Circuit From 51 [LOAD 4051   20.000] To 4051 [4051        400.00] Cktid "1 " :
- AT TIME    2.000 PICKUP TIMER STARTED. V = 0.9897

Output completed

Channel output file is "Fault_4032_OLTC.out"

74 diagonal and 96 off-diagonal elements
- AT TIME    2.055 PICKUP TIMER RESET
- AT TIME    2.075 PICKUP TIMER RESET
- AT TIME    2.285 PICKUP TIMER RESET
- AT TIME    2.305 PICKUP TIMER RESET

Model OLTC1T Circuit From 32 [LOAD 2032   20.000] To 2032 [2032        220.00] Cktid "1 " :
- AT TIME    2.345 PICKUP TIMER STARTED. V = 0.9896
- AT TIME    2.350 PICKUP TIMER RESET

Model OLTC1T Circuit From 11 [LOAD 1011   20.000] To 1011 [1011        130.00] Cktid "1 " :
- AT TIME    2.355 PICKUP TIMER STARTED. V = 1.0100
- AT TIME    2.370 PICKUP TIMER RESET

Model OLTC1T Circuit From 2 [LOAD 1042   20.000] To 1042 [1042        130.00] Cktid "1 " :
- AT TIME    2.410 PICKUP TIMER STARTED. V = 1.0101

Model OLTC1T Circuit From 63 [LOAD 4063   20.000] To 4063 [4063        400.00] Cktid "1 " :
- AT TIME    2.425 PICKUP TIMER STARTED. V = 1.0103

Model OLTC1T Circuit From 71 [LOAD 4071   20.000] To 4071 [4071        400.00] Cktid "1 " :
- AT TIME    2.450 PICKUP TIMER STARTED. V = 1.0101

Model OLTC1T Circuit From 62 [LOAD 4062   20.000] To 4062 [4062        400.00] Cktid "1 " :
- AT TIME    2.475 PICKUP TIMER STARTED. V = 1.0104
- AT TIME    2.565 PICKUP TIMER RESET
- AT TIME    2.570 PICKUP TIMER RESET

Model OLTC1T Circuit From 51 [LOAD 4051   20.000] To 4051 [4051        400.00] Cktid "1 " :
- AT TIME    2.570 PICKUP TIMER STARTED. V = 1.0158

Model MAXEX2 Bus 50012 [G12         15.000] Machine "1 " :
AT TIME=   2.60 TIMER RESET, IFD =   1.92

Model OLTC1T Circuit From 72 [LOAD 4072   20.000] To 4072 [4072        400.00] Cktid "1 " :
- AT TIME    2.605 PICKUP TIMER STARTED. V = 1.0101
- AT TIME    2.720 PICKUP TIMER RESET

Model OLTC1T Circuit From 22 [LOAD 1022   20.000] To 1022 [1022        130.00] Cktid "1 " :
- AT TIME    2.735 PICKUP TIMER STARTED. V = 1.0101

Model MAXEX2 Bus 50014 [G14         15.000] Machine "1 " :
AT TIME=   2.74 TIMER RESET, IFD =   3.21
- AT TIME    2.785 PICKUP TIMER RESET

Model OLTC1T Circuit From 32 [LOAD 2032   20.000] To 2032 [2032        220.00] Cktid "1 " :
- AT TIME    2.810 PICKUP TIMER STARTED. V = 1.0102
- AT TIME    2.950 PICKUP TIMER RESET
- AT TIME    2.980 PICKUP TIMER RESET

Model OLTC1T Circuit From 47 [LOAD 4047   20.000] To 4047 [4047        400.00] Cktid "1 " :
- AT TIME    2.980 PICKUP TIMER STARTED. V = 0.9899

Model OLTC1T Circuit From 31 [LOAD 2031   20.000] To 2031 [2031        220.00] Cktid "1 " :
- AT TIME    2.985 PICKUP TIMER STARTED. V = 1.0201

Model OLTC1T Circuit From 61 [LOAD 4061   20.000] To 4061 [4061        400.00] Cktid "1 " :
- AT TIME    3.000 PICKUP TIMER STARTED. V = 0.9900

Output completed

Channel output file is "Fault_4032_OLTC.out"

74 diagonal and 96 off-diagonal elements
- AT TIME    3.005 PICKUP TIMER RESET

Model OLTC1T Circuit From 51 [LOAD 4051   20.000] To 4051 [4051        400.00] Cktid "1 " :
- AT TIME    3.010 PICKUP TIMER STARTED. V = 0.9893

Model MAXEX2 Bus 50014 [G14         15.000] Machine "1 " :
AT TIME=   3.17 TIMER ACTIVATED, IFD =   3.22
- AT TIME    3.200 PICKUP TIMER RESET
- AT TIME    3.205 PICKUP TIMER RESET

Model OLTC1T Circuit From 62 [LOAD 4062   20.000] To 4062 [4062        400.00] Cktid "1 " :
- AT TIME    3.205 PICKUP TIMER STARTED. V = 0.9822
- AT TIME    3.225 PICKUP TIMER RESET
- AT TIME    3.230 PICKUP TIMER RESET

Model OLTC1T Circuit From 63 [LOAD 4063   20.000] To 4063 [4063        400.00] Cktid "1 " :
- AT TIME    3.235 PICKUP TIMER STARTED. V = 0.9856

Model OLTC1T Circuit From 31 [LOAD 2031   20.000] To 2031 [2031        220.00] Cktid "1 " :
- AT TIME    3.245 PICKUP TIMER STARTED. V = 0.9896
- AT TIME    3.305 PICKUP TIMER RESET

Model OLTC1T Circuit From 2 [LOAD 1042   20.000] To 1042 [1042        130.00] Cktid "1 " :
- AT TIME    3.310 PICKUP TIMER STARTED. V = 0.9806

Model MAXEX2 Bus 50012 [G12         15.000] Machine "1 " :
AT TIME=   3.36 TIMER ACTIVATED, IFD =   1.92
- AT TIME    3.440 PICKUP TIMER RESET

Model OLTC1T Circuit From 32 [LOAD 2032   20.000] To 2032 [2032        220.00] Cktid "1 " :
- AT TIME    3.445 PICKUP TIMER STARTED. V = 0.9828
- AT TIME    3.550 PICKUP TIMER RESET

Model OLTC1T Circuit From 22 [LOAD 1022   20.000] To 1022 [1022        130.00] Cktid "1 " :
- AT TIME    3.555 PICKUP TIMER STARTED. V = 0.9751
- AT TIME    3.675 PICKUP TIMER RESET
- AT TIME    3.720 PICKUP TIMER RESET
- AT TIME    3.740 PICKUP TIMER RESET
- AT TIME    3.995 PICKUP TIMER RESET

Output completed

Channel output file is "Fault_4032_OLTC.out"

74 diagonal and 96 off-diagonal elements
- AT TIME    4.045 PICKUP TIMER RESET
- AT TIME    4.155 PICKUP TIMER RESET

Model MAXEX2 Bus 50012 [G12         15.000] Machine "1 " :
AT TIME=   4.48 TIMER RESET, IFD =   1.92
- AT TIME    4.515 PICKUP TIMER RESET
- AT TIME    4.580 PICKUP TIMER RESET
- AT TIME    4.800 PICKUP TIMER RESET

Model OLTC1T Circuit From 51 [LOAD 4051   20.000] To 4051 [4051        400.00] Cktid "1 " :
- AT TIME    4.975 PICKUP TIMER STARTED. V = 0.9900

Output completed

Channel output file is "Fault_4032_OLTC.out"

74 diagonal and 96 off-diagonal elements

Model OLTC1T Circuit From 71 [LOAD 4071   20.000] To 4071 [4071        400.00] Cktid "1 " :
- AT TIME    5.010 PICKUP TIMER STARTED. V = 1.0100
- AT TIME    5.120 PICKUP TIMER RESET

Model OLTC1T Circuit From 31 [LOAD 2031   20.000] To 2031 [2031        220.00] Cktid "1 " :
- AT TIME    5.255 PICKUP TIMER STARTED. V = 0.9898

Model OLTC1T Circuit From 2 [LOAD 1042   20.000] To 1042 [1042        130.00] Cktid "1 " :
- AT TIME    5.335 PICKUP TIMER STARTED. V = 0.9900

Model MAXEX2 Bus 50012 [G12         15.000] Machine "1 " :
AT TIME=   5.42 TIMER ACTIVATED, IFD =   1.92

Model OLTC1T Circuit From 62 [LOAD 4062   20.000] To 4062 [4062        400.00] Cktid "1 " :
- AT TIME    5.420 PICKUP TIMER STARTED. V = 0.9900

Model OLTC1T Circuit From 22 [LOAD 1022   20.000] To 1022 [1022        130.00] Cktid "1 " :
- AT TIME    5.445 PICKUP TIMER STARTED. V = 0.9899

Output completed

Channel output file is "Fault_4032_OLTC.out"

74 diagonal and 96 off-diagonal elements
- AT TIME    6.080 PICKUP TIMER RESET
- AT TIME    6.155 PICKUP TIMER RESET

Model MAXEX2 Bus 50012 [G12         15.000] Machine "1 " :
AT TIME=   6.45 TIMER RESET, IFD =   1.92

Model OLTC1T Circuit From 62 [LOAD 4062   20.000] To 4062 [4062        400.00] Cktid "1 " :
- AT TIME    6.930 PICKUP TIMER STARTED. V = 0.9900
- AT TIME    6.950 PICKUP TIMER RESET

Output completed

Channel output file is "Fault_4032_OLTC.out"

74 diagonal and 96 off-diagonal elements

Model OLTC1T Circuit From 22 [LOAD 1022   20.000] To 1022 [1022        130.00] Cktid "1 " :
- AT TIME    7.140 PICKUP TIMER STARTED. V = 0.9899

Model MAXEX2 Bus 50012 [G12         15.000] Machine "1 " :
AT TIME=   7.21 TIMER ACTIVATED, IFD =   1.92
- AT TIME    7.545 PICKUP TIMER RESET

Output completed

Channel output file is "Fault_4032_OLTC.out"

74 diagonal and 96 off-diagonal elements

Model MAXEX2 Bus 50012 [G12         15.000] Machine "1 " :
AT TIME=   8.55 TIMER RESET, IFD =   1.92

Output completed

Channel output file is "Fault_4032_OLTC.out"

74 diagonal and 96 off-diagonal elements

Model OLTC1T Circuit From 62 [LOAD 4062   20.000] To 4062 [4062        400.00] Cktid "1 " :
- AT TIME    9.115 PICKUP TIMER STARTED. V = 0.9900

Model MAXEX2 Bus 50012 [G12         15.000] Machine "1 " :
AT TIME=   9.21 TIMER ACTIVATED, IFD =   1.92
- AT TIME    9.625 PICKUP TIMER RESET

Output completed

Channel output file is "Fault_4032_OLTC.out"

74 diagonal and 96 off-diagonal elements

Model MAXEX2 Bus 50012 [G12         15.000] Machine "1 " :
AT TIME=  10.60 TIMER RESET, IFD =   1.92
- AT TIME   10.995 PICKUP TIMER RESET

Output completed

Channel output file is "Fault_4032_OLTC.out"

74 diagonal and 96 off-diagonal elements

Model MAXEX2 Bus 50012 [G12         15.000] Machine "1 " :
AT TIME=  11.18 TIMER ACTIVATED, IFD =   1.92

Model OLTC1T Circuit From 22 [LOAD 1022   20.000] To 1022 [1022        130.00] Cktid "1 " :
- AT TIME   11.275 PICKUP TIMER STARTED. V = 0.9900

Output completed

Channel output file is "Fault_4032_OLTC.out"

74 diagonal and 96 off-diagonal elements

Model MAXEX2 Bus 50012 [G12         15.000] Machine "1 " :
AT TIME=  12.61 TIMER RESET, IFD =   1.92
- AT TIME   12.900 PICKUP TIMER RESET

Output completed

Channel output file is "Fault_4032_OLTC.out"

74 diagonal and 96 off-diagonal elements

Model MAXEX2 Bus 50012 [G12         15.000] Machine "1 " :
AT TIME=  13.02 TIMER ACTIVATED, IFD =   1.92

Model OLTC1T Circuit From 22 [LOAD 1022   20.000] To 1022 [1022        130.00] Cktid "1 " :
- AT TIME   13.205 PICKUP TIMER STARTED. V = 0.9900

Output completed

Channel output file is "Fault_4032_OLTC.out"

74 diagonal and 96 off-diagonal elements

Model MAXEX2 Bus 50012 [G12         15.000] Machine "1 " :
AT TIME=  14.69 TIMER RESET, IFD =   1.92

Model MAXEX2 Bus 50012 [G12         15.000] Machine "1 " :
AT TIME=  14.90 TIMER ACTIVATED, IFD =   1.92
- AT TIME   14.990 PICKUP TIMER RESET

Output completed

Channel output file is "Fault_4032_OLTC.out"

74 diagonal and 96 off-diagonal elements

Model OLTC1T Circuit From 22 [LOAD 1022   20.000] To 1022 [1022        130.00] Cktid "1 " :
- AT TIME   15.160 PICKUP TIMER STARTED. V = 0.9900

Output completed

Channel output file is "Fault_4032_OLTC.out"

74 diagonal and 96 off-diagonal elements
- AT TIME   16.975 PICKUP TIMER RESET

Output completed

Channel output file is "Fault_4032_OLTC.out"

74 diagonal and 96 off-diagonal elements

Model OLTC1T Circuit From 22 [LOAD 1022   20.000] To 1022 [1022        130.00] Cktid "1 " :
- AT TIME   17.125 PICKUP TIMER STARTED. V = 0.9900

Output completed

Channel output file is "Fault_4032_OLTC.out"

74 diagonal and 96 off-diagonal elements

Output completed

Channel output file is "Fault_4032_OLTC.out"

74 diagonal and 96 off-diagonal elements

Output completed

Channel output file is "Fault_4032_OLTC.out"

74 diagonal and 96 off-diagonal elements

Output completed

Channel output file is "Fault_4032_OLTC.out"

74 diagonal and 96 off-diagonal elements

Output completed

Channel output file is "Fault_4032_OLTC.out"

74 diagonal and 96 off-diagonal elements

Model OLTC1T Circuit From 62 [LOAD 4062   20.000] To 4062 [4062        400.00] Cktid "1 " :
- AT TIME   22.799 PICKUP TIMER STARTED. V = 0.9900

Output completed

Channel output file is "Fault_4032_OLTC.out"

74 diagonal and 96 off-diagonal elements

Output completed

Channel output file is "Fault_4032_OLTC.out"

74 diagonal and 96 off-diagonal elements

Output completed

Channel output file is "Fault_4032_OLTC.out"

74 diagonal and 96 off-diagonal elements

Output completed

Channel output file is "Fault_4032_OLTC.out"

74 diagonal and 96 off-diagonal elements

Output completed

Channel output file is "Fault_4032_OLTC.out"

74 diagonal and 96 off-diagonal elements

Output completed

Channel output file is "Fault_4032_OLTC.out"

74 diagonal and 96 off-diagonal elements

Model MAXEX2 Bus 50012 [G12         15.000] Machine "1 " :
AT TIME=  28.53 TIMER RESET, IFD =   1.92

Model MAXEX2 Bus 50012 [G12         15.000] Machine "1 " :
AT TIME=  28.98 TIMER ACTIVATED, IFD =   1.92

Output completed

Channel output file is "Fault_4032_OLTC.out"

74 diagonal and 96 off-diagonal elements

Output completed

Channel output file is "Fault_4032_OLTC.out"

74 diagonal and 96 off-diagonal elements

Model MAXEX2 Bus 50012 [G12         15.000] Machine "1 " :
AT TIME=  30.03 TIMER RESET, IFD =   1.92

Output completed

Channel output file is "Fault_4032_OLTC.out"

74 diagonal and 96 off-diagonal elements

Model OLTC1T Circuit From 4 [LOAD 1044   20.000] To 1044 [1044        130.00] Cktid "1 " :
- AT TIME   31.413 PICKUP TIMER TIMED OUT

Model OLTC1T Circuit From 4 [LOAD 1044   20.000] To 1044 [1044        130.00] Cktid "1 " :
- AT TIME   31.413 SUBSEQUENT SIGNAL LOCKOUT TIMER STARTED

Model OLTC1T Circuit From 4 [LOAD 1044   20.000] To 1044 [1044        130.00] Cktid "1 " :
- AT TIME   31.413 TAP CHANGER TIMER STARTED

Model OLTC1T Circuit From 5 [LOAD 1043   20.000] To 1045 [1045        130.00] Cktid "1 " :
- AT TIME   31.513 PICKUP TIMER TIMED OUT

Model OLTC1T Circuit From 5 [LOAD 1043   20.000] To 1045 [1045        130.00] Cktid "1 " :
- AT TIME   31.513 SUBSEQUENT SIGNAL LOCKOUT TIMER STARTED

Model OLTC1T Circuit From 5 [LOAD 1043   20.000] To 1045 [1045        130.00] Cktid "1 " :
- AT TIME   31.513 TAP CHANGER TIMER STARTED

Model OLTC1T Circuit From 1 [LOAD 1041   20.000] To 1041 [1041        130.00] Cktid "1 " :
- AT TIME   31.763 PICKUP TIMER TIMED OUT

Model OLTC1T Circuit From 1 [LOAD 1041   20.000] To 1041 [1041        130.00] Cktid "1 " :
- AT TIME   31.763 SUBSEQUENT SIGNAL LOCKOUT TIMER STARTED

Model OLTC1T Circuit From 1 [LOAD 1041   20.000] To 1041 [1041        130.00] Cktid "1 " :
- AT TIME   31.763 TAP CHANGER TIMER STARTED

Model OLTC1T Circuit From 3 [LOAD 1043   20.000] To 1043 [1043        130.00] Cktid "1 " :
- AT TIME   31.773 PICKUP TIMER TIMED OUT

Model OLTC1T Circuit From 3 [LOAD 1043   20.000] To 1043 [1043        130.00] Cktid "1 " :
- AT TIME   31.773 SUBSEQUENT SIGNAL LOCKOUT TIMER STARTED

Model OLTC1T Circuit From 3 [LOAD 1043   20.000] To 1043 [1043        130.00] Cktid "1 " :
- AT TIME   31.773 TAP CHANGER TIMER STARTED

Output completed

Channel output file is "Fault_4032_OLTC.out"

74 diagonal and 96 off-diagonal elements

Model OLTC1T Circuit From 4 [LOAD 1044   20.000] To 1044 [1044        130.00] Cktid "1 " :
- AT TIME   32.413 TAP CHANGER TIMER TIMED OUT

Model OLTC1T Circuit From 4 [LOAD 1044   20.000] To 1044 [1044        130.00] Cktid "1 " :
- AT TIME   32.413 TAP RATIO CHANGED FROM 0.99000 TO  0.98000

74 diagonal and 96 off-diagonal elements

Model MAXEX2 Bus 50012 [G12         15.000] Machine "1 " :
AT TIME=  32.42 TIMER ACTIVATED, IFD =   1.92

Model OLTC1T Circuit From 5 [LOAD 1043   20.000] To 1045 [1045        130.00] Cktid "1 " :
- AT TIME   32.513 TAP CHANGER TIMER TIMED OUT

Model OLTC1T Circuit From 5 [LOAD 1043   20.000] To 1045 [1045        130.00] Cktid "1 " :
- AT TIME   32.513 TAP RATIO CHANGED FROM 1.00000 TO  0.99000

74 diagonal and 96 off-diagonal elements

Model OLTC1T Circuit From 2 [LOAD 1042   20.000] To 1042 [1042        130.00] Cktid "1 " :
- AT TIME   32.513 PICKUP TIMER STARTED. V = 0.9900

Model OLTC1T Circuit From 42 [LOAD 4042   20.000] To 4042 [4042        400.00] Cktid "1 " :
- AT TIME   32.608 PICKUP TIMER TIMED OUT

Model OLTC1T Circuit From 42 [LOAD 4042   20.000] To 4042 [4042        400.00] Cktid "1 " :
- AT TIME   32.608 SUBSEQUENT SIGNAL LOCKOUT TIMER STARTED

Model OLTC1T Circuit From 42 [LOAD 4042   20.000] To 4042 [4042        400.00] Cktid "1 " :
- AT TIME   32.608 TAP CHANGER TIMER STARTED

Model OLTC1T Circuit From 41 [LOAD 4041   20.000] To 4041 [4041        400.00] Cktid "1 " :
- AT TIME   32.758 PICKUP TIMER TIMED OUT

Model OLTC1T Circuit From 41 [LOAD 4041   20.000] To 4041 [4041        400.00] Cktid "1 " :
- AT TIME   32.758 SUBSEQUENT SIGNAL LOCKOUT TIMER STARTED

Model OLTC1T Circuit From 41 [LOAD 4041   20.000] To 4041 [4041        400.00] Cktid "1 " :
- AT TIME   32.758 TAP CHANGER TIMER STARTED

Model OLTC1T Circuit From 1 [LOAD 1041   20.000] To 1041 [1041        130.00] Cktid "1 " :
- AT TIME   32.763 TAP CHANGER TIMER TIMED OUT

Model OLTC1T Circuit From 1 [LOAD 1041   20.000] To 1041 [1041        130.00] Cktid "1 " :
- AT TIME   32.763 TAP RATIO CHANGED FROM 1.00000 TO  0.99000

74 diagonal and 96 off-diagonal elements

Model OLTC1T Circuit From 3 [LOAD 1043   20.000] To 1043 [1043        130.00] Cktid "1 " :
- AT TIME   32.773 TAP CHANGER TIMER TIMED OUT

Model OLTC1T Circuit From 3 [LOAD 1043   20.000] To 1043 [1043        130.00] Cktid "1 " :
- AT TIME   32.773 TAP RATIO CHANGED FROM 1.01000 TO  1.00000

74 diagonal and 96 off-diagonal elements

Model OLTC1T Circuit From 61 [LOAD 4061   20.000] To 4061 [4061        400.00] Cktid "1 " :
- AT TIME   32.828 PICKUP TIMER TIMED OUT

Model OLTC1T Circuit From 61 [LOAD 4061   20.000] To 4061 [4061        400.00] Cktid "1 " :
- AT TIME   32.828 SUBSEQUENT SIGNAL LOCKOUT TIMER STARTED

Model OLTC1T Circuit From 61 [LOAD 4061   20.000] To 4061 [4061        400.00] Cktid "1 " :
- AT TIME   32.828 TAP CHANGER TIMER STARTED

Output completed

Channel output file is "Fault_4032_OLTC.out"

74 diagonal and 96 off-diagonal elements

Model OLTC1T Circuit From 43 [LOAD 4043   20.000] To 4043 [4043        400.00] Cktid "1 " :
- AT TIME   33.533 PICKUP TIMER TIMED OUT

Model OLTC1T Circuit From 43 [LOAD 4043   20.000] To 4043 [4043        400.00] Cktid "1 " :
- AT TIME   33.533 SUBSEQUENT SIGNAL LOCKOUT TIMER STARTED

Model OLTC1T Circuit From 43 [LOAD 4043   20.000] To 4043 [4043        400.00] Cktid "1 " :
- AT TIME   33.533 TAP CHANGER TIMER STARTED

Model OLTC1T Circuit From 42 [LOAD 4042   20.000] To 4042 [4042        400.00] Cktid "1 " :
- AT TIME   33.608 TAP CHANGER TIMER TIMED OUT

Model OLTC1T Circuit From 42 [LOAD 4042   20.000] To 4042 [4042        400.00] Cktid "1 " :
- AT TIME   33.608 TAP RATIO CHANGED FROM 1.03000 TO  1.02000

74 diagonal and 96 off-diagonal elements

Model OLTC1T Circuit From 46 [LOAD 4046   20.000] To 4046 [4046        400.00] Cktid "1 " :
- AT TIME   33.728 PICKUP TIMER TIMED OUT

Model OLTC1T Circuit From 46 [LOAD 4046   20.000] To 4046 [4046        400.00] Cktid "1 " :
- AT TIME   33.728 SUBSEQUENT SIGNAL LOCKOUT TIMER STARTED

Model OLTC1T Circuit From 46 [LOAD 4046   20.000] To 4046 [4046        400.00] Cktid "1 " :
- AT TIME   33.728 TAP CHANGER TIMER STARTED

Model OLTC1T Circuit From 41 [LOAD 4041   20.000] To 4041 [4041        400.00] Cktid "1 " :
- AT TIME   33.758 TAP CHANGER TIMER TIMED OUT

Model OLTC1T Circuit From 41 [LOAD 4041   20.000] To 4041 [4041        400.00] Cktid "1 " :
- AT TIME   33.758 TAP RATIO CHANGED FROM 1.04000 TO  1.03000

74 diagonal and 96 off-diagonal elements

Model OLTC1T Circuit From 47 [LOAD 4047   20.000] To 4047 [4047        400.00] Cktid "1 " :
- AT TIME   33.783 PICKUP TIMER TIMED OUT

Model OLTC1T Circuit From 47 [LOAD 4047   20.000] To 4047 [4047        400.00] Cktid "1 " :
- AT TIME   33.783 SUBSEQUENT SIGNAL LOCKOUT TIMER STARTED

Model OLTC1T Circuit From 47 [LOAD 4047   20.000] To 4047 [4047        400.00] Cktid "1 " :
- AT TIME   33.783 TAP CHANGER TIMER STARTED

Model OLTC1T Circuit From 61 [LOAD 4061   20.000] To 4061 [4061        400.00] Cktid "1 " :
- AT TIME   33.828 TAP CHANGER TIMER TIMED OUT

Model OLTC1T Circuit From 61 [LOAD 4061   20.000] To 4061 [4061        400.00] Cktid "1 " :
- AT TIME   33.828 TAP RATIO CHANGED FROM 1.03000 TO  1.02000

74 diagonal and 96 off-diagonal elements

Output completed

Channel output file is "Fault_4032_OLTC.out"

74 diagonal and 96 off-diagonal elements

Model OLTC1T Circuit From 43 [LOAD 4043   20.000] To 4043 [4043        400.00] Cktid "1 " :
- AT TIME   34.533 TAP CHANGER TIMER TIMED OUT

Model OLTC1T Circuit From 43 [LOAD 4043   20.000] To 4043 [4043        400.00] Cktid "1 " :
- AT TIME   34.533 TAP RATIO CHANGED FROM 1.02000 TO  1.01000

74 diagonal and 96 off-diagonal elements

Model OLTC1T Circuit From 46 [LOAD 4046   20.000] To 4046 [4046        400.00] Cktid "1 " :
- AT TIME   34.728 TAP CHANGER TIMER TIMED OUT

Model OLTC1T Circuit From 46 [LOAD 4046   20.000] To 4046 [4046        400.00] Cktid "1 " :
- AT TIME   34.728 TAP RATIO CHANGED FROM 1.02000 TO  1.01000

74 diagonal and 96 off-diagonal elements

Model OLTC1T Circuit From 32 [LOAD 2032   20.000] To 2032 [2032        220.00] Cktid "1 " :
- AT TIME   34.728 PICKUP TIMER STARTED. V = 0.9899

Model OLTC1T Circuit From 47 [LOAD 4047   20.000] To 4047 [4047        400.00] Cktid "1 " :
- AT TIME   34.783 TAP CHANGER TIMER TIMED OUT

Model OLTC1T Circuit From 47 [LOAD 4047   20.000] To 4047 [4047        400.00] Cktid "1 " :
- AT TIME   34.783 TAP RATIO CHANGED FROM 1.04000 TO  1.03000

74 diagonal and 96 off-diagonal elements

Output completed

Channel output file is "Fault_4032_OLTC.out"

74 diagonal and 96 off-diagonal elements

Model OLTC1T Circuit From 51 [LOAD 4051   20.000] To 4051 [4051        400.00] Cktid "1 " :
- AT TIME   35.928 PICKUP TIMER TIMED OUT

Model OLTC1T Circuit From 51 [LOAD 4051   20.000] To 4051 [4051        400.00] Cktid "1 " :
- AT TIME   35.928 SUBSEQUENT SIGNAL LOCKOUT TIMER STARTED

Model OLTC1T Circuit From 51 [LOAD 4051   20.000] To 4051 [4051        400.00] Cktid "1 " :
- AT TIME   35.928 TAP CHANGER TIMER STARTED

Output completed

Channel output file is "Fault_4032_OLTC.out"

74 diagonal and 96 off-diagonal elements

Model OLTC1T Circuit From 51 [LOAD 4051   20.000] To 4051 [4051        400.00] Cktid "1 " :
- AT TIME   36.929 TAP CHANGER TIMER TIMED OUT

Model OLTC1T Circuit From 51 [LOAD 4051   20.000] To 4051 [4051        400.00] Cktid "1 " :
- AT TIME   36.929 TAP RATIO CHANGED FROM 1.05000 TO  1.04000

74 diagonal and 96 off-diagonal elements

Output completed

Channel output file is "Fault_4032_OLTC.out"

74 diagonal and 96 off-diagonal elements

Model OLTC1T Circuit From 31 [LOAD 2031   20.000] To 2031 [2031        220.00] Cktid "1 " :
- AT TIME   37.419 PICKUP TIMER TIMED OUT

Model OLTC1T Circuit From 31 [LOAD 2031   20.000] To 2031 [2031        220.00] Cktid "1 " :
- AT TIME   37.419 SUBSEQUENT SIGNAL LOCKOUT TIMER STARTED

Model OLTC1T Circuit From 31 [LOAD 2031   20.000] To 2031 [2031        220.00] Cktid "1 " :
- AT TIME   37.419 TAP CHANGER TIMER STARTED

Output completed

Channel output file is "Fault_4032_OLTC.out"

74 diagonal and 96 off-diagonal elements

Model OLTC1T Circuit From 31 [LOAD 2031   20.000] To 2031 [2031        220.00] Cktid "1 " :
- AT TIME   38.419 TAP CHANGER TIMER TIMED OUT

Model OLTC1T Circuit From 31 [LOAD 2031   20.000] To 2031 [2031        220.00] Cktid "1 " :
- AT TIME   38.419 TAP RATIO CHANGED FROM 1.01000 TO  1.00000

74 diagonal and 96 off-diagonal elements

Output completed

Channel output file is "Fault_4032_OLTC.out"

74 diagonal and 96 off-diagonal elements

Output completed

Channel output file is "Fault_4032_OLTC.out"

74 diagonal and 96 off-diagonal elements

Model OLTC1T Circuit From 3 [LOAD 1043   20.000] To 1043 [1043        130.00] Cktid "1 " :
- PICKUP AND SUBSEQUENT SIGNAL LOCKOUT TIMERS ARE BOTH TIMED OUT

Model OLTC1T Circuit From 3 [LOAD 1043   20.000] To 1043 [1043        130.00] Cktid "1 " :
- AT TIME   40.775 SUBSEQUENT SIGNAL LOCKOUT TIMER STARTED

Model OLTC1T Circuit From 3 [LOAD 1043   20.000] To 1043 [1043        130.00] Cktid "1 " :
- AT TIME   40.775 TAP CHANGER TIMER STARTED

Output completed

Channel output file is "Fault_4032_OLTC.out"

74 diagonal and 96 off-diagonal elements

Model OLTC1T Circuit From 4 [LOAD 1044   20.000] To 1044 [1044        130.00] Cktid "1 " :
- PICKUP AND SUBSEQUENT SIGNAL LOCKOUT TIMERS ARE BOTH TIMED OUT

Model OLTC1T Circuit From 4 [LOAD 1044   20.000] To 1044 [1044        130.00] Cktid "1 " :
- AT TIME   41.415 SUBSEQUENT SIGNAL LOCKOUT TIMER STARTED

Model OLTC1T Circuit From 4 [LOAD 1044   20.000] To 1044 [1044        130.00] Cktid "1 " :
- AT TIME   41.415 TAP CHANGER TIMER STARTED

Model OLTC1T Circuit From 41 [LOAD 4041   20.000] To 4041 [4041        400.00] Cktid "1 " :
- PICKUP AND SUBSEQUENT SIGNAL LOCKOUT TIMERS ARE BOTH TIMED OUT

Model OLTC1T Circuit From 41 [LOAD 4041   20.000] To 4041 [4041        400.00] Cktid "1 " :
- AT TIME   41.760 SUBSEQUENT SIGNAL LOCKOUT TIMER STARTED

Model OLTC1T Circuit From 41 [LOAD 4041   20.000] To 4041 [4041        400.00] Cktid "1 " :
- AT TIME   41.760 TAP CHANGER TIMER STARTED

Model OLTC1T Circuit From 3 [LOAD 1043   20.000] To 1043 [1043        130.00] Cktid "1 " :
- AT TIME   41.775 TAP CHANGER TIMER TIMED OUT

Model OLTC1T Circuit From 3 [LOAD 1043   20.000] To 1043 [1043        130.00] Cktid "1 " :
- AT TIME   41.775 TAP RATIO CHANGED FROM 1.00000 TO  0.99000

74 diagonal and 96 off-diagonal elements

Model OLTC1T Circuit From 47 [LOAD 4047   20.000] To 4047 [4047        400.00] Cktid "1 " :
- PICKUP AND SUBSEQUENT SIGNAL LOCKOUT TIMERS ARE BOTH TIMED OUT

Model OLTC1T Circuit From 47 [LOAD 4047   20.000] To 4047 [4047        400.00] Cktid "1 " :
- AT TIME   41.785 SUBSEQUENT SIGNAL LOCKOUT TIMER STARTED

Model OLTC1T Circuit From 47 [LOAD 4047   20.000] To 4047 [4047        400.00] Cktid "1 " :
- AT TIME   41.785 TAP CHANGER TIMER STARTED

Output completed

Channel output file is "Fault_4032_OLTC.out"

74 diagonal and 96 off-diagonal elements

Model OLTC1T Circuit From 4 [LOAD 1044   20.000] To 1044 [1044        130.00] Cktid "1 " :
- AT TIME   42.415 TAP CHANGER TIMER TIMED OUT

Model OLTC1T Circuit From 4 [LOAD 1044   20.000] To 1044 [1044        130.00] Cktid "1 " :
- AT TIME   42.415 TAP RATIO CHANGED FROM 0.98000 TO  0.97000

74 diagonal and 96 off-diagonal elements

Model OLTC1T Circuit From 5 [LOAD 1043   20.000] To 1045 [1045        130.00] Cktid "1 " :
- PICKUP AND SUBSEQUENT SIGNAL LOCKOUT TIMERS ARE BOTH TIMED OUT

Model OLTC1T Circuit From 5 [LOAD 1043   20.000] To 1045 [1045        130.00] Cktid "1 " :
- AT TIME   42.515 SUBSEQUENT SIGNAL LOCKOUT TIMER STARTED

Model OLTC1T Circuit From 5 [LOAD 1043   20.000] To 1045 [1045        130.00] Cktid "1 " :
- AT TIME   42.515 TAP CHANGER TIMER STARTED

Model OLTC1T Circuit From 42 [LOAD 4042   20.000] To 4042 [4042        400.00] Cktid "1 " :
- PICKUP AND SUBSEQUENT SIGNAL LOCKOUT TIMERS ARE BOTH TIMED OUT

Model OLTC1T Circuit From 42 [LOAD 4042   20.000] To 4042 [4042        400.00] Cktid "1 " :
- AT TIME   42.610 SUBSEQUENT SIGNAL LOCKOUT TIMER STARTED

Model OLTC1T Circuit From 42 [LOAD 4042   20.000] To 4042 [4042        400.00] Cktid "1 " :
- AT TIME   42.610 TAP CHANGER TIMER STARTED

Model OLTC1T Circuit From 41 [LOAD 4041   20.000] To 4041 [4041        400.00] Cktid "1 " :
- AT TIME   42.760 TAP CHANGER TIMER TIMED OUT

Model OLTC1T Circuit From 41 [LOAD 4041   20.000] To 4041 [4041        400.00] Cktid "1 " :
- AT TIME   42.760 TAP RATIO CHANGED FROM 1.03000 TO  1.02000

74 diagonal and 96 off-diagonal elements

Model OLTC1T Circuit From 47 [LOAD 4047   20.000] To 4047 [4047        400.00] Cktid "1 " :
- AT TIME   42.785 TAP CHANGER TIMER TIMED OUT

Model OLTC1T Circuit From 47 [LOAD 4047   20.000] To 4047 [4047        400.00] Cktid "1 " :
- AT TIME   42.785 TAP RATIO CHANGED FROM 1.03000 TO  1.02000

74 diagonal and 96 off-diagonal elements

Model OLTC1T Circuit From 61 [LOAD 4061   20.000] To 4061 [4061        400.00] Cktid "1 " :
- PICKUP AND SUBSEQUENT SIGNAL LOCKOUT TIMERS ARE BOTH TIMED OUT

Model OLTC1T Circuit From 61 [LOAD 4061   20.000] To 4061 [4061        400.00] Cktid "1 " :
- AT TIME   42.830 SUBSEQUENT SIGNAL LOCKOUT TIMER STARTED

Model OLTC1T Circuit From 61 [LOAD 4061   20.000] To 4061 [4061        400.00] Cktid "1 " :
- AT TIME   42.830 TAP CHANGER TIMER STARTED

Output completed

Channel output file is "Fault_4032_OLTC.out"

74 diagonal and 96 off-diagonal elements

Model OLTC1T Circuit From 5 [LOAD 1043   20.000] To 1045 [1045        130.00] Cktid "1 " :
- AT TIME   43.515 TAP CHANGER TIMER TIMED OUT

Model OLTC1T Circuit From 5 [LOAD 1043   20.000] To 1045 [1045        130.00] Cktid "1 " :
- AT TIME   43.515 TAP RATIO CHANGED FROM 0.99000 TO  0.98000

74 diagonal and 96 off-diagonal elements

Model OLTC1T Circuit From 42 [LOAD 4042   20.000] To 4042 [4042        400.00] Cktid "1 " :
- AT TIME   43.610 TAP CHANGER TIMER TIMED OUT

Model OLTC1T Circuit From 42 [LOAD 4042   20.000] To 4042 [4042        400.00] Cktid "1 " :
- AT TIME   43.610 TAP RATIO CHANGED FROM 1.02000 TO  1.01000

74 diagonal and 96 off-diagonal elements

Model OLTC1T Circuit From 1 [LOAD 1041   20.000] To 1041 [1041        130.00] Cktid "1 " :
- PICKUP AND SUBSEQUENT SIGNAL LOCKOUT TIMERS ARE BOTH TIMED OUT

Model OLTC1T Circuit From 1 [LOAD 1041   20.000] To 1041 [1041        130.00] Cktid "1 " :
- AT TIME   43.765 SUBSEQUENT SIGNAL LOCKOUT TIMER STARTED

Model OLTC1T Circuit From 1 [LOAD 1041   20.000] To 1041 [1041        130.00] Cktid "1 " :
- AT TIME   43.765 TAP CHANGER TIMER STARTED

Model OLTC1T Circuit From 61 [LOAD 4061   20.000] To 4061 [4061        400.00] Cktid "1 " :
- AT TIME   43.830 TAP CHANGER TIMER TIMED OUT

Model OLTC1T Circuit From 61 [LOAD 4061   20.000] To 4061 [4061        400.00] Cktid "1 " :
- AT TIME   43.830 TAP RATIO CHANGED FROM 1.02000 TO  1.01000

74 diagonal and 96 off-diagonal elements

Model OLTC1T Circuit From 63 [LOAD 4063   20.000] To 4063 [4063        400.00] Cktid "1 " :
- AT TIME   43.835 PICKUP TIMER STARTED. V = 0.9900

Output completed

Channel output file is "Fault_4032_OLTC.out"

74 diagonal and 96 off-diagonal elements
- AT TIME   44.270 PICKUP TIMER RESET

Model OLTC1T Circuit From 43 [LOAD 4043   20.000] To 4043 [4043        400.00] Cktid "1 " :
- PICKUP AND SUBSEQUENT SIGNAL LOCKOUT TIMERS ARE BOTH TIMED OUT

Model OLTC1T Circuit From 43 [LOAD 4043   20.000] To 4043 [4043        400.00] Cktid "1 " :
- AT TIME   44.535 SUBSEQUENT SIGNAL LOCKOUT TIMER STARTED

Model OLTC1T Circuit From 43 [LOAD 4043   20.000] To 4043 [4043        400.00] Cktid "1 " :
- AT TIME   44.535 TAP CHANGER TIMER STARTED

Model OLTC1T Circuit From 1 [LOAD 1041   20.000] To 1041 [1041        130.00] Cktid "1 " :
- AT TIME   44.765 TAP CHANGER TIMER TIMED OUT

Model OLTC1T Circuit From 1 [LOAD 1041   20.000] To 1041 [1041        130.00] Cktid "1 " :
- AT TIME   44.765 TAP RATIO CHANGED FROM 0.99000 TO  0.98000

74 diagonal and 96 off-diagonal elements

Model OLTC1T Circuit From 63 [LOAD 4063   20.000] To 4063 [4063        400.00] Cktid "1 " :
- AT TIME   44.765 PICKUP TIMER STARTED. V = 0.9899

Model OLTC1T Circuit From 51 [LOAD 4051   20.000] To 4051 [4051        400.00] Cktid "1 " :
- PICKUP AND SUBSEQUENT SIGNAL LOCKOUT TIMERS ARE BOTH TIMED OUT

Model OLTC1T Circuit From 51 [LOAD 4051   20.000] To 4051 [4051        400.00] Cktid "1 " :
- AT TIME   44.930 SUBSEQUENT SIGNAL LOCKOUT TIMER STARTED

Model OLTC1T Circuit From 51 [LOAD 4051   20.000] To 4051 [4051        400.00] Cktid "1 " :
- AT TIME   44.930 TAP CHANGER TIMER STARTED

Output completed

Channel output file is "Fault_4032_OLTC.out"

74 diagonal and 96 off-diagonal elements

Model OLTC1T Circuit From 43 [LOAD 4043   20.000] To 4043 [4043        400.00] Cktid "1 " :
- AT TIME   45.536 TAP CHANGER TIMER TIMED OUT

Model OLTC1T Circuit From 43 [LOAD 4043   20.000] To 4043 [4043        400.00] Cktid "1 " :
- AT TIME   45.536 TAP RATIO CHANGED FROM 1.01000 TO  1.00000

74 diagonal and 96 off-diagonal elements

Model OLTC1T Circuit From 46 [LOAD 4046   20.000] To 4046 [4046        400.00] Cktid "1 " :
- PICKUP AND SUBSEQUENT SIGNAL LOCKOUT TIMERS ARE BOTH TIMED OUT

Model OLTC1T Circuit From 46 [LOAD 4046   20.000] To 4046 [4046        400.00] Cktid "1 " :
- AT TIME   45.731 SUBSEQUENT SIGNAL LOCKOUT TIMER STARTED

Model OLTC1T Circuit From 46 [LOAD 4046   20.000] To 4046 [4046        400.00] Cktid "1 " :
- AT TIME   45.731 TAP CHANGER TIMER STARTED

Model OLTC1T Circuit From 51 [LOAD 4051   20.000] To 4051 [4051        400.00] Cktid "1 " :
- AT TIME   45.931 TAP CHANGER TIMER TIMED OUT

Model OLTC1T Circuit From 51 [LOAD 4051   20.000] To 4051 [4051        400.00] Cktid "1 " :
- AT TIME   45.931 TAP RATIO CHANGED FROM 1.04000 TO  1.03000

74 diagonal and 96 off-diagonal elements

Output completed

Channel output file is "Fault_4032_OLTC.out"

74 diagonal and 96 off-diagonal elements

Model MAXEX2 Bus 50007 [G7          15.000] Machine "1 " :
AT TIME=  46.49 TIMER ACTIVATED, IFD =   3.10

Model OLTC1T Circuit From 46 [LOAD 4046   20.000] To 4046 [4046        400.00] Cktid "1 " :
- AT TIME   46.731 TAP CHANGER TIMER TIMED OUT

Model OLTC1T Circuit From 46 [LOAD 4046   20.000] To 4046 [4046        400.00] Cktid "1 " :
- AT TIME   46.731 TAP RATIO CHANGED FROM 1.01000 TO  1.00000

74 diagonal and 96 off-diagonal elements

Output completed

Channel output file is "Fault_4032_OLTC.out"

74 diagonal and 96 off-diagonal elements

Output completed

Channel output file is "Fault_4032_OLTC.out"

74 diagonal and 96 off-diagonal elements

Output completed

Channel output file is "Fault_4032_OLTC.out"

74 diagonal and 96 off-diagonal elements

Model OLTC1T Circuit From 31 [LOAD 2031   20.000] To 2031 [2031        220.00] Cktid "1 " :
- PICKUP AND SUBSEQUENT SIGNAL LOCKOUT TIMERS ARE BOTH TIMED OUT

Model OLTC1T Circuit From 31 [LOAD 2031   20.000] To 2031 [2031        220.00] Cktid "1 " :
- AT TIME   49.421 SUBSEQUENT SIGNAL LOCKOUT TIMER STARTED

Model OLTC1T Circuit From 31 [LOAD 2031   20.000] To 2031 [2031        220.00] Cktid "1 " :
- AT TIME   49.421 TAP CHANGER TIMER STARTED

Model OLTC1T Circuit From 22 [LOAD 1022   20.000] To 1022 [1022        130.00] Cktid "1 " :
- AT TIME   49.491 PICKUP TIMER TIMED OUT

Model OLTC1T Circuit From 22 [LOAD 1022   20.000] To 1022 [1022        130.00] Cktid "1 " :
- AT TIME   49.491 SUBSEQUENT SIGNAL LOCKOUT TIMER STARTED

Model OLTC1T Circuit From 22 [LOAD 1022   20.000] To 1022 [1022        130.00] Cktid "1 " :
- AT TIME   49.491 TAP CHANGER TIMER STARTED

Model OLTC1T Circuit From 3 [LOAD 1043   20.000] To 1043 [1043        130.00] Cktid "1 " :
- PICKUP AND SUBSEQUENT SIGNAL LOCKOUT TIMERS ARE BOTH TIMED OUT

Model OLTC1T Circuit From 3 [LOAD 1043   20.000] To 1043 [1043        130.00] Cktid "1 " :
- AT TIME   49.776 SUBSEQUENT SIGNAL LOCKOUT TIMER STARTED

Model OLTC1T Circuit From 3 [LOAD 1043   20.000] To 1043 [1043        130.00] Cktid "1 " :
- AT TIME   49.776 TAP CHANGER TIMER STARTED

Model OLTC1T Circuit From 47 [LOAD 4047   20.000] To 4047 [4047        400.00] Cktid "1 " :
- PICKUP AND SUBSEQUENT SIGNAL LOCKOUT TIMERS ARE BOTH TIMED OUT

Model OLTC1T Circuit From 47 [LOAD 4047   20.000] To 4047 [4047        400.00] Cktid "1 " :
- AT TIME   49.786 SUBSEQUENT SIGNAL LOCKOUT TIMER STARTED

Model OLTC1T Circuit From 47 [LOAD 4047   20.000] To 4047 [4047        400.00] Cktid "1 " :
- AT TIME   49.786 TAP CHANGER TIMER STARTED

Output completed

Channel output file is "Fault_4032_OLTC.out"

74 diagonal and 96 off-diagonal elements

Model OLTC1T Circuit From 31 [LOAD 2031   20.000] To 2031 [2031        220.00] Cktid "1 " :
- AT TIME   50.422 TAP CHANGER TIMER TIMED OUT

Model OLTC1T Circuit From 31 [LOAD 2031   20.000] To 2031 [2031        220.00] Cktid "1 " :
- AT TIME   50.422 TAP RATIO CHANGED FROM 1.00000 TO  0.99000

74 diagonal and 96 off-diagonal elements

Model OLTC1T Circuit From 22 [LOAD 1022   20.000] To 1022 [1022        130.00] Cktid "1 " :
- AT TIME   50.492 TAP CHANGER TIMER TIMED OUT

Model OLTC1T Circuit From 22 [LOAD 1022   20.000] To 1022 [1022        130.00] Cktid "1 " :
- AT TIME   50.492 TAP RATIO CHANGED FROM 1.04000 TO  1.03000

74 diagonal and 96 off-diagonal elements

Model OLTC1T Circuit From 41 [LOAD 4041   20.000] To 4041 [4041        400.00] Cktid "1 " :
- PICKUP AND SUBSEQUENT SIGNAL LOCKOUT TIMERS ARE BOTH TIMED OUT

Model OLTC1T Circuit From 41 [LOAD 4041   20.000] To 4041 [4041        400.00] Cktid "1 " :
- AT TIME   50.762 SUBSEQUENT SIGNAL LOCKOUT TIMER STARTED

Model OLTC1T Circuit From 41 [LOAD 4041   20.000] To 4041 [4041        400.00] Cktid "1 " :
- AT TIME   50.762 TAP CHANGER TIMER STARTED

Model OLTC1T Circuit From 3 [LOAD 1043   20.000] To 1043 [1043        130.00] Cktid "1 " :
- AT TIME   50.777 TAP CHANGER TIMER TIMED OUT

Model OLTC1T Circuit From 3 [LOAD 1043   20.000] To 1043 [1043        130.00] Cktid "1 " :
- AT TIME   50.777 TAP RATIO CHANGED FROM 0.99000 TO  0.98000

74 diagonal and 96 off-diagonal elements

Model OLTC1T Circuit From 47 [LOAD 4047   20.000] To 4047 [4047        400.00] Cktid "1 " :
- AT TIME   50.787 TAP CHANGER TIMER TIMED OUT

Model OLTC1T Circuit From 47 [LOAD 4047   20.000] To 4047 [4047        400.00] Cktid "1 " :
- AT TIME   50.787 TAP RATIO CHANGED FROM 1.02000 TO  1.01000

74 diagonal and 96 off-diagonal elements

Output completed

Channel output file is "Fault_4032_OLTC.out"

74 diagonal and 96 off-diagonal elements

Model OLTC1T Circuit From 4 [LOAD 1044   20.000] To 1044 [1044        130.00] Cktid "1 " :
- PICKUP AND SUBSEQUENT SIGNAL LOCKOUT TIMERS ARE BOTH TIMED OUT

Model OLTC1T Circuit From 4 [LOAD 1044   20.000] To 1044 [1044        130.00] Cktid "1 " :
- AT TIME   51.417 SUBSEQUENT SIGNAL LOCKOUT TIMER STARTED

Model OLTC1T Circuit From 4 [LOAD 1044   20.000] To 1044 [1044        130.00] Cktid "1 " :
- AT TIME   51.417 TAP CHANGER TIMER STARTED

Model OLTC1T Circuit From 41 [LOAD 4041   20.000] To 4041 [4041        400.00] Cktid "1 " :
- AT TIME   51.762 TAP CHANGER TIMER TIMED OUT

Model OLTC1T Circuit From 41 [LOAD 4041   20.000] To 4041 [4041        400.00] Cktid "1 " :
- AT TIME   51.762 TAP RATIO CHANGED FROM 1.02000 TO  1.01000

74 diagonal and 96 off-diagonal elements

Output completed

Channel output file is "Fault_4032_OLTC.out"

74 diagonal and 96 off-diagonal elements

Model OLTC1T Circuit From 4 [LOAD 1044   20.000] To 1044 [1044        130.00] Cktid "1 " :
- AT TIME   52.417 TAP CHANGER TIMER TIMED OUT

Model OLTC1T Circuit From 4 [LOAD 1044   20.000] To 1044 [1044        130.00] Cktid "1 " :
- AT TIME   52.417 TAP RATIO CHANGED FROM 0.97000 TO  0.96000

74 diagonal and 96 off-diagonal elements

Model MAXEX2 Bus 50012 [G12         15.000] Machine "1 " :
AT TIME=  52.43 TIMER TIMED OUT, LIMITER APPLIED

Model OLTC1T Circuit From 62 [LOAD 4062   20.000] To 4062 [4062        400.00] Cktid "1 " :
- AT TIME   52.517 PICKUP TIMER TIMED OUT

Model OLTC1T Circuit From 62 [LOAD 4062   20.000] To 4062 [4062        400.00] Cktid "1 " :
- AT TIME   52.517 SUBSEQUENT SIGNAL LOCKOUT TIMER STARTED

Model OLTC1T Circuit From 62 [LOAD 4062   20.000] To 4062 [4062        400.00] Cktid "1 " :
- AT TIME   52.517 TAP CHANGER TIMER STARTED

Model OLTC1T Circuit From 42 [LOAD 4042   20.000] To 4042 [4042        400.00] Cktid "1 " :
- PICKUP AND SUBSEQUENT SIGNAL LOCKOUT TIMERS ARE BOTH TIMED OUT

Model OLTC1T Circuit From 42 [LOAD 4042   20.000] To 4042 [4042        400.00] Cktid "1 " :
- AT TIME   52.612 SUBSEQUENT SIGNAL LOCKOUT TIMER STARTED

Model OLTC1T Circuit From 42 [LOAD 4042   20.000] To 4042 [4042        400.00] Cktid "1 " :
- AT TIME   52.612 TAP CHANGER TIMER STARTED

Model OLTC1T Circuit From 61 [LOAD 4061   20.000] To 4061 [4061        400.00] Cktid "1 " :
- PICKUP AND SUBSEQUENT SIGNAL LOCKOUT TIMERS ARE BOTH TIMED OUT

Model OLTC1T Circuit From 61 [LOAD 4061   20.000] To 4061 [4061        400.00] Cktid "1 " :
- AT TIME   52.832 SUBSEQUENT SIGNAL LOCKOUT TIMER STARTED

Model OLTC1T Circuit From 61 [LOAD 4061   20.000] To 4061 [4061        400.00] Cktid "1 " :
- AT TIME   52.832 TAP CHANGER TIMER STARTED

Output completed

Channel output file is "Fault_4032_OLTC.out"

74 diagonal and 96 off-diagonal elements

Model OLTC1T Circuit From 5 [LOAD 1043   20.000] To 1045 [1045        130.00] Cktid "1 " :
- PICKUP AND SUBSEQUENT SIGNAL LOCKOUT TIMERS ARE BOTH TIMED OUT

Model OLTC1T Circuit From 5 [LOAD 1043   20.000] To 1045 [1045        130.00] Cktid "1 " :
- AT TIME   53.517 SUBSEQUENT SIGNAL LOCKOUT TIMER STARTED

Model OLTC1T Circuit From 5 [LOAD 1043   20.000] To 1045 [1045        130.00] Cktid "1 " :
- AT TIME   53.517 TAP CHANGER TIMER STARTED

Model OLTC1T Circuit From 62 [LOAD 4062   20.000] To 4062 [4062        400.00] Cktid "1 " :
- AT TIME   53.517 TAP CHANGER TIMER TIMED OUT

Model OLTC1T Circuit From 62 [LOAD 4062   20.000] To 4062 [4062        400.00] Cktid "1 " :
- AT TIME   53.517 TAP RATIO CHANGED FROM 1.04000 TO  1.03000

74 diagonal and 96 off-diagonal elements

Model OLTC1T Circuit From 42 [LOAD 4042   20.000] To 4042 [4042        400.00] Cktid "1 " :
- AT TIME   53.612 TAP CHANGER TIMER TIMED OUT

Model OLTC1T Circuit From 42 [LOAD 4042   20.000] To 4042 [4042        400.00] Cktid "1 " :
- AT TIME   53.612 TAP RATIO CHANGED FROM 1.01000 TO  1.00000

74 diagonal and 96 off-diagonal elements

Model OLTC1T Circuit From 61 [LOAD 4061   20.000] To 4061 [4061        400.00] Cktid "1 " :
- AT TIME   53.832 TAP CHANGER TIMER TIMED OUT

Model OLTC1T Circuit From 61 [LOAD 4061   20.000] To 4061 [4061        400.00] Cktid "1 " :
- AT TIME   53.832 TAP RATIO CHANGED FROM 1.01000 TO  1.00000

74 diagonal and 96 off-diagonal elements

Output completed

Channel output file is "Fault_4032_OLTC.out"

74 diagonal and 96 off-diagonal elements

Model OLTC1T Circuit From 5 [LOAD 1043   20.000] To 1045 [1045        130.00] Cktid "1 " :
- AT TIME   54.517 TAP CHANGER TIMER TIMED OUT

Model OLTC1T Circuit From 5 [LOAD 1043   20.000] To 1045 [1045        130.00] Cktid "1 " :
- AT TIME   54.517 TAP RATIO CHANGED FROM 0.98000 TO  0.97000

74 diagonal and 96 off-diagonal elements

Output completed

Channel output file is "Fault_4032_OLTC.out"

74 diagonal and 96 off-diagonal elements

Model OLTC1T Circuit From 43 [LOAD 4043   20.000] To 4043 [4043        400.00] Cktid "1 " :
- PICKUP AND SUBSEQUENT SIGNAL LOCKOUT TIMERS ARE BOTH TIMED OUT

Model OLTC1T Circuit From 43 [LOAD 4043   20.000] To 4043 [4043        400.00] Cktid "1 " :
- AT TIME   55.538 SUBSEQUENT SIGNAL LOCKOUT TIMER STARTED

Model OLTC1T Circuit From 43 [LOAD 4043   20.000] To 4043 [4043        400.00] Cktid "1 " :
- AT TIME   55.538 TAP CHANGER TIMER STARTED

Model OLTC1T Circuit From 1 [LOAD 1041   20.000] To 1041 [1041        130.00] Cktid "1 " :
- PICKUP AND SUBSEQUENT SIGNAL LOCKOUT TIMERS ARE BOTH TIMED OUT

Model OLTC1T Circuit From 1 [LOAD 1041   20.000] To 1041 [1041        130.00] Cktid "1 " :
- AT TIME   55.768 SUBSEQUENT SIGNAL LOCKOUT TIMER STARTED

Model OLTC1T Circuit From 1 [LOAD 1041   20.000] To 1041 [1041        130.00] Cktid "1 " :
- AT TIME   55.768 TAP CHANGER TIMER STARTED

Output completed

Channel output file is "Fault_4032_OLTC.out"

74 diagonal and 96 off-diagonal elements

Model OLTC1T Circuit From 43 [LOAD 4043   20.000] To 4043 [4043        400.00] Cktid "1 " :
- AT TIME   56.538 TAP CHANGER TIMER TIMED OUT

Model OLTC1T Circuit From 43 [LOAD 4043   20.000] To 4043 [4043        400.00] Cktid "1 " :
- AT TIME   56.538 TAP RATIO CHANGED FROM 1.00000 TO  0.99000

74 diagonal and 96 off-diagonal elements

Model OLTC1T Circuit From 1 [LOAD 1041   20.000] To 1041 [1041        130.00] Cktid "1 " :
- AT TIME   56.768 TAP CHANGER TIMER TIMED OUT

Model OLTC1T Circuit From 1 [LOAD 1041   20.000] To 1041 [1041        130.00] Cktid "1 " :
- AT TIME   56.768 TAP RATIO CHANGED FROM 0.98000 TO  0.97000

74 diagonal and 96 off-diagonal elements

Output completed

Channel output file is "Fault_4032_OLTC.out"

74 diagonal and 96 off-diagonal elements

Model OLTC1T Circuit From 46 [LOAD 4046   20.000] To 4046 [4046        400.00] Cktid "1 " :
- PICKUP AND SUBSEQUENT SIGNAL LOCKOUT TIMERS ARE BOTH TIMED OUT

Model OLTC1T Circuit From 46 [LOAD 4046   20.000] To 4046 [4046        400.00] Cktid "1 " :
- AT TIME   57.733 SUBSEQUENT SIGNAL LOCKOUT TIMER STARTED

Model OLTC1T Circuit From 46 [LOAD 4046   20.000] To 4046 [4046        400.00] Cktid "1 " :
- AT TIME   57.733 TAP CHANGER TIMER STARTED

Output completed

Channel output file is "Fault_4032_OLTC.out"

74 diagonal and 96 off-diagonal elements

Model OLTC1T Circuit From 46 [LOAD 4046   20.000] To 4046 [4046        400.00] Cktid "1 " :
- AT TIME   58.733 TAP CHANGER TIMER TIMED OUT

Model OLTC1T Circuit From 46 [LOAD 4046   20.000] To 4046 [4046        400.00] Cktid "1 " :
- AT TIME   58.733 TAP RATIO CHANGED FROM 1.00000 TO  0.99000

74 diagonal and 96 off-diagonal elements

Model OLTC1T Circuit From 3 [LOAD 1043   20.000] To 1043 [1043        130.00] Cktid "1 " :
- PICKUP AND SUBSEQUENT SIGNAL LOCKOUT TIMERS ARE BOTH TIMED OUT

Model OLTC1T Circuit From 3 [LOAD 1043   20.000] To 1043 [1043        130.00] Cktid "1 " :
- AT TIME   58.778 SUBSEQUENT SIGNAL LOCKOUT TIMER STARTED

Model OLTC1T Circuit From 3 [LOAD 1043   20.000] To 1043 [1043        130.00] Cktid "1 " :
- AT TIME   58.778 TAP CHANGER TIMER STARTED

Output completed

Channel output file is "Fault_4032_OLTC.out"

74 diagonal and 96 off-diagonal elements

Model MAXEX2 Bus 50011 [G11         15.000] Machine "1 " :
AT TIME=  59.59 TIMER ACTIVATED, IFD =   1.95

Model OLTC1T Circuit From 41 [LOAD 4041   20.000] To 4041 [4041        400.00] Cktid "1 " :
- PICKUP AND SUBSEQUENT SIGNAL LOCKOUT TIMERS ARE BOTH TIMED OUT

Model OLTC1T Circuit From 41 [LOAD 4041   20.000] To 4041 [4041        400.00] Cktid "1 " :
- AT TIME   59.764 SUBSEQUENT SIGNAL LOCKOUT TIMER STARTED

Model OLTC1T Circuit From 41 [LOAD 4041   20.000] To 4041 [4041        400.00] Cktid "1 " :
- AT TIME   59.764 TAP CHANGER TIMER STARTED

Model OLTC1T Circuit From 3 [LOAD 1043   20.000] To 1043 [1043        130.00] Cktid "1 " :
- AT TIME   59.779 TAP CHANGER TIMER TIMED OUT

Model OLTC1T Circuit From 3 [LOAD 1043   20.000] To 1043 [1043        130.00] Cktid "1 " :
- AT TIME   59.779 TAP RATIO CHANGED FROM 0.98000 TO  0.97000

74 diagonal and 96 off-diagonal elements

Output completed

Channel output file is "Fault_4032_OLTC.out"

74 diagonal and 96 off-diagonal elements

Model OLTC1T Circuit From 22 [LOAD 1022   20.000] To 1022 [1022        130.00] Cktid "1 " :
- PICKUP AND SUBSEQUENT SIGNAL LOCKOUT TIMERS ARE BOTH TIMED OUT

Model OLTC1T Circuit From 22 [LOAD 1022   20.000] To 1022 [1022        130.00] Cktid "1 " :
- AT TIME   60.494 SUBSEQUENT SIGNAL LOCKOUT TIMER STARTED

Model OLTC1T Circuit From 22 [LOAD 1022   20.000] To 1022 [1022        130.00] Cktid "1 " :
- AT TIME   60.494 TAP CHANGER TIMER STARTED

Model OLTC1T Circuit From 51 [LOAD 4051   20.000] To 4051 [4051        400.00] Cktid "1 " :
- PICKUP AND SUBSEQUENT SIGNAL LOCKOUT TIMERS ARE BOTH TIMED OUT

Model OLTC1T Circuit From 51 [LOAD 4051   20.000] To 4051 [4051        400.00] Cktid "1 " :
- AT TIME   60.599 SUBSEQUENT SIGNAL LOCKOUT TIMER STARTED

Model OLTC1T Circuit From 51 [LOAD 4051   20.000] To 4051 [4051        400.00] Cktid "1 " :
- AT TIME   60.599 TAP CHANGER TIMER STARTED

Model MAXEX2 Bus 50011 [G11         15.000] Machine "1 " :
AT TIME=  60.74 TIMER RESET, IFD =   1.95

Model OLTC1T Circuit From 41 [LOAD 4041   20.000] To 4041 [4041        400.00] Cktid "1 " :
- AT TIME   60.764 TAP CHANGER TIMER TIMED OUT

Model OLTC1T Circuit From 41 [LOAD 4041   20.000] To 4041 [4041        400.00] Cktid "1 " :
- AT TIME   60.764 TAP RATIO CHANGED FROM 1.01000 TO  1.00000

74 diagonal and 96 off-diagonal elements

Model MAXEX2 Bus 50011 [G11         15.000] Machine "1 " :
AT TIME=  60.76 TIMER ACTIVATED, IFD =   1.95

Output completed

Channel output file is "Fault_4032_OLTC.out"

74 diagonal and 96 off-diagonal elements

Model OLTC1T Circuit From 4 [LOAD 1044   20.000] To 1044 [1044        130.00] Cktid "1 " :
- PICKUP AND SUBSEQUENT SIGNAL LOCKOUT TIMERS ARE BOTH TIMED OUT

Model OLTC1T Circuit From 4 [LOAD 1044   20.000] To 1044 [1044        130.00] Cktid "1 " :
- AT TIME   61.419 SUBSEQUENT SIGNAL LOCKOUT TIMER STARTED

Model OLTC1T Circuit From 4 [LOAD 1044   20.000] To 1044 [1044        130.00] Cktid "1 " :
- AT TIME   61.419 TAP CHANGER TIMER STARTED

Model OLTC1T Circuit From 31 [LOAD 2031   20.000] To 2031 [2031        220.00] Cktid "1 " :
- PICKUP AND SUBSEQUENT SIGNAL LOCKOUT TIMERS ARE BOTH TIMED OUT

Model OLTC1T Circuit From 31 [LOAD 2031   20.000] To 2031 [2031        220.00] Cktid "1 " :
- AT TIME   61.424 SUBSEQUENT SIGNAL LOCKOUT TIMER STARTED

Model OLTC1T Circuit From 31 [LOAD 2031   20.000] To 2031 [2031        220.00] Cktid "1 " :
- AT TIME   61.424 TAP CHANGER TIMER STARTED

Model OLTC1T Circuit From 22 [LOAD 1022   20.000] To 1022 [1022        130.00] Cktid "1 " :
- AT TIME   61.494 TAP CHANGER TIMER TIMED OUT

Model OLTC1T Circuit From 22 [LOAD 1022   20.000] To 1022 [1022        130.00] Cktid "1 " :
- AT TIME   61.494 TAP RATIO CHANGED FROM 1.03000 TO  1.02000

74 diagonal and 96 off-diagonal elements

Model OLTC1T Circuit From 51 [LOAD 4051   20.000] To 4051 [4051        400.00] Cktid "1 " :
- AT TIME   61.599 TAP CHANGER TIMER TIMED OUT

Model OLTC1T Circuit From 51 [LOAD 4051   20.000] To 4051 [4051        400.00] Cktid "1 " :
- AT TIME   61.599 TAP RATIO CHANGED FROM 1.03000 TO  1.02000

74 diagonal and 96 off-diagonal elements

Output completed

Channel output file is "Fault_4032_OLTC.out"

74 diagonal and 96 off-diagonal elements

Model OLTC1T Circuit From 2 [LOAD 1042   20.000] To 1042 [1042        130.00] Cktid "1 " :
- AT TIME   62.079 PICKUP TIMER TIMED OUT

Model OLTC1T Circuit From 2 [LOAD 1042   20.000] To 1042 [1042        130.00] Cktid "1 " :
- AT TIME   62.079 SUBSEQUENT SIGNAL LOCKOUT TIMER STARTED

Model OLTC1T Circuit From 2 [LOAD 1042   20.000] To 1042 [1042        130.00] Cktid "1 " :
- AT TIME   62.079 TAP CHANGER TIMER STARTED

Model OLTC1T Circuit From 4 [LOAD 1044   20.000] To 1044 [1044        130.00] Cktid "1 " :
- AT TIME   62.419 TAP CHANGER TIMER TIMED OUT

Model OLTC1T Circuit From 4 [LOAD 1044   20.000] To 1044 [1044        130.00] Cktid "1 " :
- AT TIME   62.419 TAP RATIO CHANGED FROM 0.96000 TO  0.95000

74 diagonal and 96 off-diagonal elements

Model OLTC1T Circuit From 31 [LOAD 2031   20.000] To 2031 [2031        220.00] Cktid "1 " :
- AT TIME   62.424 TAP CHANGER TIMER TIMED OUT

Model OLTC1T Circuit From 31 [LOAD 2031   20.000] To 2031 [2031        220.00] Cktid "1 " :
- AT TIME   62.424 TAP RATIO CHANGED FROM 0.99000 TO  0.98000

74 diagonal and 96 off-diagonal elements

Model OLTC1T Circuit From 42 [LOAD 4042   20.000] To 4042 [4042        400.00] Cktid "1 " :
- PICKUP AND SUBSEQUENT SIGNAL LOCKOUT TIMERS ARE BOTH TIMED OUT

Model OLTC1T Circuit From 42 [LOAD 4042   20.000] To 4042 [4042        400.00] Cktid "1 " :
- AT TIME   62.614 SUBSEQUENT SIGNAL LOCKOUT TIMER STARTED

Model OLTC1T Circuit From 42 [LOAD 4042   20.000] To 4042 [4042        400.00] Cktid "1 " :
- AT TIME   62.614 TAP CHANGER TIMER STARTED

Output completed

Channel output file is "Fault_4032_OLTC.out"

74 diagonal and 96 off-diagonal elements

Model OLTC1T Circuit From 2 [LOAD 1042   20.000] To 1042 [1042        130.00] Cktid "1 " :
- AT TIME   63.079 TAP CHANGER TIMER TIMED OUT

...